
**** 05/13/18 13:02:10 ******* PSpice Lite (March 2016) ******* ID# 10813 ****

 ** Profile: "SCHEMATIC1-exersices"  [ C:\Cadence\Projects\exersices-PSpiceFiles\SCHEMATIC1\exersices.sim ] 


 ****     CIRCUIT DESCRIPTION


******************************************************************************




** Creating circuit file "exersices.cir" 
** WARNING: THIS AUTOMATICALLY GENERATED FILE MAY BE OVERWRITTEN BY SUBSEQUENT SIMULATIONS

*Libraries: 
* Profile Libraries :
* Local Libraries :
* From [PSPICE NETLIST] section of C:\Users\Alexandros\AppData\Roaming\SPB_Data\cdssetup\OrCAD_PSpice\17.2.0\PSpice.ini file:
.lib "nomd.lib" 

*Analysis directives: 
.TRAN  0 1000ns 0 
.OPTIONS ADVCONV
.PROBE64 V(alias(*)) I(alias(*)) W(alias(*)) D(alias(*)) NOISE(alias(*)) 
.INC "..\SCHEMATIC1.net" 



**** INCLUDING SCHEMATIC1.net ****
* source EXERSICES
R_R1         N01447 N01203  10k TC=0,0 
R_R2         GND N01203  2.2k TC=0,0 
R_R3         GND N01203  10k TC=0,0 
Q_Q1         N013141 N01203 N01322 BC238BP/ZTX 
R_R4         N01608 N01322  15k TC=0,0 
Q_Q2         N01322 N01534 N013832 BC238BP/ZTX 
R_R5         N013141 N01447  10k TC=0,0 
R_R6         N013832 N01447  10k TC=0,0 
R_R7         N01534 N01447  10k TC=0,0 
R_R8         GND N01534  1k TC=0,0 
V_V1         N01447 N01608 15Vdc

**** RESUMING exersices.cir ****
.END

ERROR(ORPSIM-15142): Node N01447 is floating

ERROR(ORPSIM-15142): Node N01203 is floating

ERROR(ORPSIM-15142): Node GND is floating

ERROR(ORPSIM-15142): Node N013141 is floating

ERROR(ORPSIM-15142): Node N01322 is floating

ERROR(ORPSIM-15142): Node N01608 is floating

ERROR(ORPSIM-15142): Node N01534 is floating

ERROR(ORPSIM-15142): Node N013832 is floating
